function mpc = case33mg
%CASE33MG  Modified 33-bus microgrid test case based on Baran & Wu 33-bus feeder.
%   Distribution microgrid with added DERs and PCC to upstream grid.

%% MATPOWER Case Format : Version 2
mpc.version = '2';

%%-----  Power Flow Data  -----%%
%% system MVA base (smaller → microgrid scale)
mpc.baseMVA = 5;

%% bus data
%  bus_i type Pd     Qd     Gs Bs area Vm  Va baseKV zone Vmax Vmin
%  (Pd, Qd initially in kW / kVAr, converted to MW / MVAr below)
mpc.bus = [ ...
    1   3   0       0       0   0   1   1.00    0   12.66   1   1.10    0.90;
    2   1   100     60      0   0   1   1.00    0   12.66   1   1.10    0.90;
    3   1   190     40      0   0   1   1.00    0   12.66   1   1.10    0.90;
    4   1   120     80      0   0   1   1.00    0   12.66   1   1.10    0.90;
    5   1   160     30      0   0   1   1.00    0   12.66   1   1.10    0.90;
    6   1   160     20      0   0   1   1.00    0   12.66   1   1.10    0.90;
    7   1   120     10      0   0   1   1.00    0   12.66   1   1.10    0.90;
    8   1   120     10      0   0   1   1.00    0   12.66   1   1.10    0.90;
    9   1   160     20      0   0   1   1.00    0   12.66   1   1.10    0.90;
    10  1   160     20      0   0   1   1.00    0   12.66   1   1.10    0.90;
    11  1   145     30      0   0   1   1.00    0   12.66   1   1.10    0.90;
    12  1   160     35      0   0   1   1.00    0   12.66   1   1.10    0.90;
    13  1   160     35      0   0   1   1.00    0   12.66   1   1.10    0.90;
    14  1   112     80      0   0   1   1.00    0   12.66   1   1.10    0.90;
    15  1   160     10      0   0   1   1.00    0   12.66   1   1.10    0.90;
    16  1   160     20      0   0   1   1.00    0   12.66   1   1.10    0.90;
    17  1   160     20      0   0   1   1.00    0   12.66   1   1.10    0.90;
    18  1   190     40      0   0   1   1.00    0   12.66   1   1.10    0.90;
    19  1   190     40      0   0   1   1.00    0   12.66   1   1.10    0.90;
    20  1   190     40      0   0   1   1.00    0   12.66   1   1.10    0.90;
    21  1   190     40      0   0   1   1.00    0   12.66   1   1.10    0.90;
    22  1   190     40      0   0   1   1.00    0   12.66   1   1.10    0.90;
    23  1   190     50      0   0   1   1.00    0   12.66   1   1.10    0.90;
    24  1   142     20      0   0   1   1.00    0   12.66   1   1.10    0.90;
    25  1   142     20      0   0   1   1.00    0   12.66   1   1.10    0.90;
    26  1   160     25      0   0   1   1.00    0   12.66   1   1.10    0.90;
    27  1   160     25      0   0   1   1.00    0   12.66   1   1.10    0.90;
    28  1   160     20      0   0   1   1.00    0   12.66   1   1.10    0.90;
    29  1   112     70      0   0   1   1.00    0   12.66   1   1.10    0.90;
    30  1   120     60      0   0   1   1.00    0   12.66   1   1.10    0.90;
    31  1   115     70      0   0   1   1.00    0   12.66   1   1.10    0.90;
    32  1   121     10      0   0   1   1.00    0   12.66   1   1.10    0.90;
    33  1   160     40      0   0   1   1.00    0   12.66   1   1.10    0.90;
];

%% generator data
%  bus Pg   Qg  Qmax Qmin Vg  mBase status Pmax Pmin ...
mpc.gen = [
    1   0.8   0   1.0  -1.0  1.00  5   1   1.5   0;   % main slack
    6   0.3   0   0.5  -0.5  1.00  5   1   0.6   0;   % PV / DER 1
    18  0.3   0   0.5  -0.5  1.00  5   1   0.6   0;   % PV / DER 2
    25  0.4   0   0.6  -0.6  1.00  5   1   0.8   0;   % PV / storage
];

%% branch data
%  fbus tbus   r(ohm)   x(ohm)   b   rateA rateB rateC ratio angle status angmin angmax
mpc.branch = [  %% r, x in ohms here, converted to p.u. below
    1   2   0.0922  0.0470  0   0 0 0  0  0  1  -360  360;
    2   3   0.4930  0.2511  0   0 0 0  0  0  1  -360  360;
    3   4   0.3660  0.1864  0   0 0 0  0  0  1  -360  360;
    4   5   0.3811  0.1941  0   0 0 0  0  0  1  -360  360;
    5   6   0.8190  0.7070  0   0 0 0  0  0  1  -360  360;
    6   7   0.1872  0.6188  0   0 0 0  0  0  1  -360  360;
    7   8   0.7114  0.2351  0   0 0 0  0  0  1  -360  360;
    8   9   1.0300  0.7400  0   0 0 0  0  0  1  -360  360;
    9   10  1.0440  0.7400  0   0 0 0  0  0  1  -360  360;
    10  11  0.1966  0.0650  0   0 0 0  0  0  1  -360  360;
    11  12  0.3744  0.1238  0   0 0 0  0  0  1  -360  360;
    12  13  1.4680  1.1550  0   0 0 0  0  0  1  -360  360;
    13  14  0.5416  0.7129  0   0 0 0  0  0  1  -360  360;
    14  15  0.5910  0.5260  0   0 0 0  0  0  1  -360  360;
    15  16  0.7463  0.5450  0   0 0 0  0  0  1  -360  360;
    16  17  1.2890  1.7210  0   0 0 0  0  0  1  -360  360;
    17  18  0.7320  0.5740  0   0 0 0  0  0  1  -360  360;
    2   19  0.1640  0.1565  0   0 0 0  0  0  1  -360  360;
    19  20  1.5042  1.3554  0   0 0 0  0  0  1  -360  360;
    20  21  0.4095  0.4784  0   0 0 0  0  0  1  -360  360;
    21  22  0.7089  0.9373  0   0 0 0  0  0  1  -360  360;
    3   23  0.4512  0.3083  0   0 0 0  0  0  1  -360  360;
    23  24  0.8980  0.7091  0   0 0 0  0  0  1  -360  360;
    24  25  0.8960  0.7011  0   0 0 0  0  0  1  -360  360;
    6   26  0.2030  0.1034  0   0 0 0  0  0  1  -360  360;
    26  27  0.2842  0.1447  0   0 0 0  0  0  1  -360  360;
    27  28  1.0590  0.9337  0   0 0 0  0  0  1  -360  360;
    28  29  0.8042  0.7006  0   0 0 0  0  0  1  -360  360;
    29  30  0.5075  0.2585  0   0 0 0  0  0  1  -360  360;
    30  31  0.9744  0.9630  0   0 0 0  0  0  1  -360  360;
    31  32  0.3105  0.3619  0   0 0 0  0  0  1  -360  360;
    32  33  0.3410  0.5302  0   0 0 0  0  0  1  -360  360;
];

%% Add upstream grid bus 34 (PQ) and PCC branch 1–34
mpc.bus(end+1,:) = [34 1 0 0 0 0 1 1.00 0 12.66 1 1.10 0.90];  % PQ bus

mpc.branch(end+1,:) = [ ...
    1 34  0.01 0.05 0  2 2 2  0 0 1  -360 360];   % PCC initially closed (status=1)

%%-----  OPF Data  -----%%
mpc.gencost = [
    2   0   0   3   0.01    20  0;
    2   0   0   3   0.01    20  0;
    2   0   0   3   0.01    20  0;
    2   0   0   3   0.01    20  0;
];

%% convert branch impedances from Ohms to p.u.
[PQ, PV, REF, NONE, BUS_I, BUS_TYPE, PD, QD, GS, BS, BUS_AREA, VM, ...
    VA, BASE_KV, ZONE, VMAX, VMIN, LAM_P, LAM_Q, MU_VMAX, MU_VMIN] = idx_bus;
[F_BUS, T_BUS, BR_R, BR_X, BR_B, RATE_A, RATE_B, RATE_C, ...
    TAP, SHIFT, BR_STATUS, PF, QF, PT, QT, MU_SF, MU_ST, ...
    ANGMIN, ANGMAX, MU_ANGMIN, MU_ANGMAX] = idx_brch;

Vbase = mpc.bus(1, BASE_KV) * 1e3;      %% in Volts
Sbase = mpc.baseMVA * 1e6;              %% in VA
mpc.branch(:, [BR_R BR_X]) = mpc.branch(:, [BR_R BR_X]) / (Vbase^2 / Sbase);

%% convert loads from kW to MW
mpc.bus(:, [PD, QD]) = mpc.bus(:, [PD, QD]) / 1e3;

end
